*
***
*
* Version 2.0 Copyright © Linear Technology Corp. 10/19/05. All rights reserved.
*
.SUBCKT LT1215 3 2 7 4 6 ;(+IN -IN V+ V- OUT)
* INPUT
RC1 4 80 230.7
RC2 4 90 230.7
Q1 80 102 10 QM1
Q2 90 103 11 QM2
RB1 2 102 100
RB2 3 103 100
DCM1 105 102 DM2
DCM2 105 103 DM2
VCMC 105 4 0.4
C1 80 90 2.142E-11
RE1 10 12 173
RE2 11 12 173
IEE 7 12 9.008E-04
RE 12 0 222000
CE 12 0 1.579E-12
DCMR 12 112 DM2
VCMR 7 112 2
* INTERMEDIATE
GCM 0 8 12 0 1.726e-8
GA 8 0 80 90 0.004335
R2 8 0 100000
C2 1 8 3e-11
GB 1 0 8 0 1617
* OUTPUT
RO1 1 110 5
RO2A 1 0 15
RO2B 6 110 23
EC 17 0 110 0 1
D1 1 17 DM1
D2 17 1 DM1
D3 110 13 DM2
D4 14 110 DM2
D5 6 110 DM2
D6 110 6 DM2
VC 7 13 1.421
VE 14 4 0.8272
IP 7 4 0.003849
DSUB 4 7 DM2
* MODELS
.MODEL QM1 PNP(IS=8e-16 BF=1029)
.MODEL QM2 PNP(IS=8.047E-16 BF=1118)
.MODEL DM1 D(IS=0.9187)
.MODEL DM2 D(IS=8e-16 BV=39.6)
.ENDS LT1215